Authors,Title,Year,Source title,Volume,Issue,Art. No.,Page start,Page end,Page count,Cited by,DOI,Link,Affiliations,Authors with affiliations,Abstract,Author Keywords,Index Keywords,Molecular Sequence Numbers,Chemicals/CAS,Tradenames,Manufacturers,Funding Details,References,Correspondence Address,Editors,Sponsors,Publisher,Conference name,Conference date,Conference location,Conference code,ISSN,ISBN,CODEN,PubMed ID,Language of Original Document,Abbreviated Source Title,Document Type,Source,EID
"Lam Y.F., Fu J.S., Wu S., Mickley L.J.","Impacts of future climate change and effects of biogenic emissions on surface ozone and particulate matter concentrations in the United States",2011,"Atmospheric Chemistry and Physics","11","10",,"4789","4806",,,10.5194/acp-11-4789-2011,"http://www.scopus.com/inward/record.url?eid=2-s2.0-79957512785&partnerID=40&md5=e22407e231c40d1e42d4092fc99f2ccd","Department of Civil and Environmental Engineering, University of Tennessee at Knoxville, Knoxville, TN, United States; Department of Geological and Mining Engineering and Sciences, Department of Civil and Environmental Engineering, Michigan Technological University, Houghton, MI, United States; School of Engineering and Applied Sciences, Harvard University, Cambridge, MA, United States","Lam, Y.F., Department of Civil and Environmental Engineering, University of Tennessee at Knoxville, Knoxville, TN, United States; Fu, J.S., Department of Civil and Environmental Engineering, University of Tennessee at Knoxville, Knoxville, TN, United States; Wu, S., Department of Geological and Mining Engineering and Sciences, Department of Civil and Environmental Engineering, Michigan Technological University, Houghton, MI, United States; Mickley, L.J., School of Engineering and Applied Sciences, Harvard University, Cambridge, MA, United States","Simulations of present and future average regional ozone and PM 2.5 concentrations over the United States were performed to investigate the potential impacts of global climate change and emissions on regional air quality using CMAQ. Various emissions and climate conditions with different biogenic emissions and domain resolutions were implemented to study the sensitivity of future air quality trends from the impacts of changing biogenic emissions. A comparison of GEOS-Chem and CMAQ was performed to investigate the effect of downscaling on the prediction of future air quality trends. For ozone, the impacts of global climate change are relatively smaller when compared to the impacts of anticipated future emissions reduction, except for the Northeast area, where increasing biogenic emissions due to climate change have stronger positive effects (increases) to the regional ozone air quality. The combination effect from both climate change and emission reductions leads to approximately a 10 % or 5 ppbv decrease of the maximum daily average eight-hour ozone (MDA8) over the Eastern United States. For PM2.5, the impacts of global climate change have shown insignificant effect, where as the impacts of anticipated future emissions reduction account for the majority of overall PM2.5 reductions. The annual average 24-h PM2.5 of the future-year condition was found to be about 40 % lower than the one from the present-year condition, of which 60 % of its overall reductions are contributed to by the decrease of SO4 and NO3 particulate matters. Changing the biogenic emissions model increases the MDA8 ozone by about 5-10 % or 3-5 ppbv in the Northeast area. Conversely, it reduces the annual average PM2.5 by 5 % or 1.0 1/4g m-3 in the Southeast region. © Author(s) 2011.",,"air quality; biogenic emission; climate change; climate effect; concentration (composition); downscaling; emission inventory; future prospect; global perspective; nitrate; ozone; particulate matter; sulfate; trend analysis; United States",,,,,,"Allen, D., Pickering, K., Pinder, R., Henderson, B., Koshak, W., Pierce, T., Impact of lightning-NO emissions on eastern United states photochemistry during the summer of 2006 as determined using the CMAQ model (2010) The 9th Annual CMAS Conference, , Chapel Hill, NC, USA 11-13 October; Arneth, A., Niinemets, U., Pressley, S., Back, J., Hari, P., Karl, T., Noe, S., Smith, B., Process-based estimates of terrestrial ecosystem isoprene emissions: Incorporating the effects of a direct CO2-isoprene interaction (2007) Atmospheric Chemistry and Physics, 7 (1), pp. 31-53; Arunachalam, S., Holland, A., Do, B., Abraczinskas, M., A quantitative assessment of the influence of grid resolution on predictions of future-year air quality in North Carolina, USA (2006) Atmospheric Environment, 40 (26), pp. 5010-5026. , DOI 10.1016/j.atmosenv.2006.01.024, PII S1352231006001117, Evaluation of Urban and Eilerian Air Quality Models; Avise, J., Chen, J., Lamb, B., Wiedinmyer, C., Guenther, A., Salathe, E., Mass, C., Attribution of projected changes in summertime US ozone and PM2.5 concentrations to global changes (2009) Atmos. Chem. Phys., 9, pp. 1111-1124. , doi:10.5194/acp- 9-1111-2009; Aw, J., Kleeman, M.J., Evaluating the first-order effect of intraannual temperature variability on urban air pollution (2003) J. Geophys. Res., 108, pp. 7-1; Bell, M.L., Goldberg, R., Hogrefe, C., Kinney, P.L., Knowlton, K., Lynn, B., Rosenthal, J., Patz, J.A., Climate change, ambient ozone, and health in 50 US cities (2007) Climatic Change, 82 (1-2), pp. 61-76. , DOI 10.1007/s10584-006-9166-7; Boylan, J.W., (2005) Updates to CMAQ SOA Module and Kz min Values, , 3rd Particulate Matter/Regional Haze/Ozone Modeling Workshop, New Orleans, LA, USA 19 May; Chin, M., Diehl, T., Ginoux, P., Malm, W., Intercontinental transport of pollution and dust aerosols: Implications for regional air quality (2007) Atmospheric Chemistry and Physics, 7 (21), pp. 5501-5517; Civerolo, K., Hogrefe, C., Lynn, B., Rosenthal, J., Ku, J.-Y., Solecki, W., Cox, J., Kinney, P., Estimating the effects of increased urbanization on surface meteorology and ozone concentrations in the New York City metropolitan region (2007) Atmospheric Environment, 41 (9), pp. 1803-1818. , DOI 10.1016/j.atmosenv.2006.10.076, PII S1352231006010855; Dawson, J.P., Racherla, P.N., Lynn, B.H., Adams, P.J., Pandis, S.N., Simulating present-day and future air quality as climate changes: Model evaluation (2008) Atmos. Environ., 42, pp. 4551-4566; Duncan, B., Yoshida, Y., Retscher, C., Pickering, K., Celarier, E., The sensitivity of U.S. surface ozone formation to NOx and VOCs as viewed from space (2009) The 8th Annual CMAS Conference, , Chapel Hill, NC, USA 19-21 October; Fiore, A.M., Horowitz, L.W., Purves, D.W., Levy II, H., Evans, M.J., Wang, Y., Li, Q., Yantosca, R.M., Evaluating the contribution of changes in isoprene emissions to surface ozone trends over the eastern United States (2005) Journal of Geophysical Research D: Atmospheres, 110 (12), pp. 1-13. , DOI 10.1029/2004JD005485, D12303; Gaza, R.S., Mesoscale meteorology and high ozone in the Northeast United States (1998) J. Appl. Meteorol., 37, pp. 961-977; Gilliam, R.C., Hogrefe, C., Rao, S.T., New methods for evaluating meteorological models used in air quality applications (2006) Atmospheric Environment, 40 (26), pp. 5073-5086. , DOI 10.1016/j.atmosenv.2006.01.023, PII S1352231006000902, Evaluation of Urban and Eilerian Air Quality Models; Guenther, A.B., Zimmerman, P.R., Harley, P.C., Monson, R.K., Fall, R., Isoprene and monoterpene emission rate variability: Model evaluations and sensitivity analyses (1993) J. Geophys. Res., 98, pp. 12609-12617; Guenther, A., Karl, T., Harley, P., Wiedinmyer, C., Palmer, P.I., Geron, C., Estimates of global terrestrial isoprene emissions using MEGAN (Model of Emissions of Gases and Aerosols from Nature) (2006) Atmospheric Chemistry and Physics, 6 (11), pp. 3181-3210; Gustafson Jr., W.I., Leung, L.R., Regional downscaling for air quality assessment: A reasonable proposition? (2007) Bulletin of the American Meteorological Society, 88 (8), pp. 1215-1227. , DOI 10.1175/BAMS-88-8-1215; Heald, C.L., Henze, D.K., Horowitz, L.W., Feddema, J., Lamarque, J.F., Guenther, A., Hess, P.G., Fung, I., Predicted change in global secondary organic aerosol concentrations in response to future climate, emissions, and land use change (2008) J. Geophys. Res.-Atmos., 113, pp. D05211. , doi:10.1029/2007jd009092; Hogrefe, C., Lynn, B., Civerolo, K., Ku, J.-Y., Rosenthal, J., Rosenzweig, C., Goldberg, R., Kinney, P.L., Simulating changes in regional air pollution over the eastern United States due to changes in global and regional climate and emissions (2004) Journal of Geophysical Research D: Atmospheres, 109 (22), pp. 1-13. , DOI 10.1029/2004JD004690, D22301; Hogrefe, C., Hao, W., Civerolo, K., Ku, J.-Y., Sistla, G., Gaza, R.S., Sedefian, L., Mathur, R., Daily simulation of ozone and fine particulates over New York State: Findings and challenges (2007) Journal of Applied Meteorology and Climatology, 46 (7), pp. 961-979. , DOI 10.1175/JAM2520.1; Hogrefe, C., Lynn, B., Solecki, B., Cox, J., Small, C., Knowlton, K., Rosenthal, J., Kinney, P.L., Air quality in future decades - Determining the relative impacts of changes in climate emissions global atmospheric composition and regional land use (2007) Air Pollution Modeling and Its Application, 17, pp. 217-226; Huang, H.C., Chang, J.S., On the performance of numerical solvers for a chemistry submodel in three-dimensional air quality models 1. Box model simulations (2001) J. Geophys. Res.-Atmos., 106, pp. 20175-20188; Huang, H.-C., Lin, J., Tao, Z., Choi, H., Patten, K., Kunkel, K., Xu, M., Wang, J., Impacts of long-range transport of global pollutants and precursor gases on U.S. air quality under future climatic conditions (2008) J. Geophys. Res.-Atoms., 113, pp. D19307. , doi:10.1029/2007JD009469; Ito, A., Sillman, S., Penner, J.E., Global chemical transport model study of ozone response to changes in chemical kinetics and biogenic volatile organic compounds emissions due to increasing temperatures: Sensitivities to isoprene nitrate chemistry and grid resolution (2009) J. Geophys. Res.-Atoms., 114, pp. D09301. , doi:10.1029/2008JD011254; Jacob, D.J., Winner, D.A., Effect of climate change on air quality (2009) Atmos. Environ., 43, pp. 51-63; Jacobson, M.Z., Streets, D.G., Influence of future anthropogenic emissions on climate, natural emissions, and air quality (2009) J. Geophys. Res.-Atoms., 114, pp. D08118. , doi:10.1029/2008JD011476; Jiang, X., Wiedinmyer, C., Chen, F., Yang, Z.-L., Lo, J.C.F., Predicted impacts of climate and land use change on surface ozone in the Houston, Texas, area (2008) J. Geophys. Res.-Atoms., 113, pp. D20312. , doi:10.1029/2008JD009820; Jiang, X.Y., Yang, Z.L., Liao, H., Wiedinmyer, C., Sensitivity of biogenic secondary organic aerosols to future climate change at regional scales An online coupled simulation (2010) Atmospheric Environment, 44, pp. 4891-4907. , DOI 10.1016/j.atmosenv.2010.08.032; Kim, Y., Fu, J.S., Miller, T.L., Improving ozone modeling in complex terrain at a fine grid resolution: Part I - examination of analysis nudging and all PBL schemes associated with LSMs in meteorological model (2010) Atmos. Environ., 44, pp. 523-532; Kleinman, L.I., Daum, P.H., Imre, D.G., Lee, J.H., Lee Y.-, N., Nunnermacker, L.J., Springston, S.R., Newman, L., Ozone production in the New York City urban plume (2000) J. Geophys. Res.-Atoms., 105, pp. 14495-14511; Knutti, R., Allen, M.R., Friedlingstein, P., Gregory, J.M., Hegerl, G.C., Meehl, G.A., Meinshausen, M., Wigley, T.M.L., A review of uncertainties in global temperature projections over the twenty-first century (2008) J. Climate, 21, pp. 2651-2663; Kunkel, K., Huang, H.C., Liang, X.Z., Lin, J.T., Wuebbles, D., Tao, Z., Williams, A., Hayhoe, K., Sensitivity of future ozone concentrations in the northeast USA to regional climate change (2008) Mitigat. Adapt. Strateg. Glob. Change, 13, pp. 597-606; Lam, Y.F., Fu, J.S., Corrigendum to ""A novel downscaling technique for the linkage of global and regional air quality modeling (2009) Atmos. Chem. Phys., 9, pp. 9169-9185; (2010) Atmos. Chem. Phys., 10, pp. 4013-4031. , doi:10.5194/acp-10-4013-2010; Mickley, L.J., Jacob, D.J., Rind, D., Streets, D., Effects of 2000-2050 global change on U.S. ozone air quality (2006) AGU Fall Meeting, , San Francisco, CA, 11-15 December; Milford, J.B., Russell, A.G., McRae, G.J., A new approach to photochemical pollution control: Implications of spatial patterns in pollutant responses to reductions in nitrogen oxides and reactive organic gas emissions (1989) Environmental Science and Technology, 23 (10), pp. 1290-1301; Milford, J.B., Dongfen Gao, Sillman, S., Blossey, P., Russell, A.G., Total reactive nitrogen (NOy) as an indicator of the sensitivity of ozone to reductions in hydrocarbon and NOx emissions (1994) Journal of Geophysical Research, 99 (D2), pp. 3533-3542. , DOI 10.1029/93JD03224; Nolte, C.G., Gilliland, A.B., Hogrefe, C., Mickley, L.J., Linking global to regional models to assess future climate impacts on surface ozone levels in the United States (2008) J. Geophys. Res.- Atoms., 114, pp. D14307. , doi:10.1029/2007JD008497; Park, R.J., Jacob, D.J., Fairlie, D.T., Alexander, B., Yantosca, R.M., Natural and transboundary pollution influences on aerosol concentrations and visibility degradation in the United States (2004) Regional and Global Perspectives on Haze, 134, pp. 963-967. , 87, Regional and Global Perspectives on Haze: Causes, Consequences and Controversies Visibility Specialty Conference; Pouliot, G., A tale of two models: A comparison of the biogenic emission inventory system (BEIS3.14) and Model of Emissions of Gases and Aerosols from Nature (MEGAN 2.04) (2008) 7th Annual CMAS Conference, , Chapel Hill, NC, USA 7 October; Pouliot, G., Pierce, T.E., Integration of the model of emissions of gases and aerosols from nature (MEGAN) into the CMAQ modeling system (2009) 18th International Emission Inventory Conference, , Baltimore, Maryland 14-17 April; Queen, A., Zhang, Y., Gilliam, R., Pleim, J., Examining the sensitivity of MM5-CMAQ predictions to explicit microphysics schemes and horizontal grid resolutions, Part I-database, evaluation protocol, and precipitation predictions (2008) Atmos. Environ., 42, pp. 3842-3855; Racherla, P.N., Adams, P.J., The response of surface ozone to climate change over the Eastern United States (2008) Atmos. Chem. Phys., 8, pp. 871-885. , doi:10.5194/acp-8-871-2008; Rind, D., Lean, J., Healy, R., Simulated time-dependent climate response to solar radiative forcing since 1600 (1999) Journal of Geophysical Research D: Atmospheres, 104 (2), pp. 1973-1990; Rind, D., Lerner, J., Jonas, J., McLinden, C., Effects of resolution and model physics on tracer transports in the NASA Goddard Institute for Space Studies general circulation models (2007) Journal of Geophysical Research D: Atmospheres, 112 (9), pp. D09315. , DOI 10.1029/2006JD007476; Sakamoto, K., Takada, H., Sekiguchi, K., Influence of ozone, relative humidity, and flow rate on the deposition and oxidation of sulfur dioxide on yellow sand (2004) Atmospheric Environment, 38 (SPEC.ISS.), pp. 6961-6967. , DOI 10.1016/j.atmosenv.2004.05.060, PII S135223100400812X; Sakulyanontvittaya, T., Duhl, T., Wiedinmyer, C., Helmig, D., Matsunaga, S., Potosnak, M., Milford, J., Guenther, A., Monoterpene and sesquiterpene emission estimates for the United States (2008) Environmental Science and Technology, 42 (5), pp. 1623-1629. , DOI 10.1021/es702274e; Schmidt, G.A., Ruedy, R., Hansen, J.E., Aleinov, I., Bell, N., Bauer, M., Bauer, S., Mao-Sung, Y., Present-day atmospheric simulations using GISS ModelE: Comparison to in situ, satellite, and reanalysis data (2006) J. Climate, 19, pp. 153-192; Streets, D.G., Bond, T.C., Lee, T., Jang, C., On the future of carbonaceous aerosol emissions (2004) Journal of Geophysical Research D: Atmospheres, 109 (24), pp. 1-19. , DOI 10.1029/2004JD004902, D24212; Tagaris, E., Manomaiphiboon, K., Liao, K.-J., Leung, L.R., Woo, J.-H., He, S., Amar, P., Russell, A.G., Impacts of global climate change and emissions on regional ozone and fine particulate matter concentrations over the United States (2007) Journal of Geophysical Research D: Atmospheres, 112 (14), pp. D14312. , DOI 10.1029/2006JD008262; Tai, A.P.K., Mickley, L.J., Jacob, D.J., Correlations between fine particulate matter (PM2.5) and meteorological variables in the United States: Implications for the sensitivity of PM2.5 to climate change (2010) Atmos. Environ., 44, pp. 3976-3984; Vingarzan, R., A review of surface ozone background levels and trends (2004) Atmospheric Environment, 38 (21), pp. 3431-3442. , DOI 10.1016/j.atmosenv.2004.03.030, PII S1352231004002808; Weaver, C.P., Liang, X.Z., Zhu, J., Adams, P.J., Amar, P., Avise, J., Caughey, M., Wuebbles, D.J., A preliminary synthesis of modeled climate change impacts on U.S. regional ozone concentrations (2009) B. Am. Meteorol. Soc., 90, pp. 1843-1863; Wu, S., Mickley, L.J., Jacob, D.J., Logan, J.A., Yantosca, R.M., Rind, D., Why are there large differences between models in global budgets of tropospheric ozone? (2007) Journal of Geophysical Research D: Atmospheres, 112 (5), pp. D05302. , DOI 10.1029/2006JD007801; Wu, S., Mickley, L.J., Jacob, D.J., Rind, D., Streets, D.G., Effects of 2000-2050 changes in climate and emissions on global tropospheric ozone and the policy-relevant background surface ozone in the United States (2008) J. Geophys. Res.-Atoms., 113, pp. D18312. , doi:10.1029/2006JD007801; Wu, S., Mickley, L.J., Leibensperger, E.M., Jacob, D.J., Rind, D., Streets, D.G., Effects of 2000-2050 global change on ozone air quality in the United States (2008) J. Geophys. Res.-Atoms., 113. , doi:10.1029/2007JD008917; Zhang, Y., Hu, X.-M., Leung, L.R., Gustafson Jr., W.I., Impacts of regional climate change on biogenic emissions and air quality (2008) J. Geophys. Res.-Atoms., 113, pp. D18310. , doi:10.1029/2008JD009965","Fu, J. S.; Department of Civil and Environmental Engineering, University of Tennessee at Knoxville, Knoxville, TN, United States; email: jsfu@utk.edu",,,,,,,,16807316,,,,"English","Atmos. Chem. Phys.",Article,Scopus,2-s2.0-79957512785
